<?xml version="1.0" encoding="UTF-8"?>
<!-- LifeLine AI - Urban Grid Network Nodes (4x4 Grid) -->
<nodes xmlns:xsi="http://www.w3.org/2001/XMLSchema-instance" xsi:noNamespaceSchemaLocation="http://sumo.dlr.de/xsd/nodes_file.xsd">
    <!-- Row 0 (North) -->
    <node id="n00" x="0" y="0" type="traffic_light"/>
    <node id="n01" x="200" y="0" type="traffic_light"/>
    <node id="n02" x="400" y="0" type="traffic_light"/>
    <node id="n03" x="600" y="0" type="traffic_light"/>
    
    <!-- Row 1 -->
    <node id="n10" x="0" y="200" type="traffic_light"/>
    <node id="n11" x="200" y="200" type="traffic_light"/>
    <node id="n12" x="400" y="200" type="traffic_light"/>
    <node id="n13" x="600" y="200" type="traffic_light"/>
    
    <!-- Row 2 -->
    <node id="n20" x="0" y="400" type="traffic_light"/>
    <node id="n21" x="200" y="400" type="traffic_light"/>
    <node id="n22" x="400" y="400" type="traffic_light"/>
    <node id="n23" x="600" y="400" type="traffic_light"/>
    
    <!-- Row 3 (South) -->
    <node id="n30" x="0" y="600" type="traffic_light"/>
    <node id="n31" x="200" y="600" type="traffic_light"/>
    <node id="n32" x="400" y="600" type="traffic_light"/>
    <node id="n33" x="600" y="600" type="traffic_light"/>
</nodes>
